0.AUoAwGsItHSFH0itxfZx4kZBpu6kjsBkZYpBsJytJNC0M3tKALA.AgABAAEAAAD--DLA3VO7QrddgJg7WevrAgDs_wUA9P8EEB9ZJkX49WhmiZpC7f0JrP-QZTQJNFVuC-BV0UxyR-Hu-llbXkjIMbu6WcDxPQ2cHs5EAnWJ8wXrsS86it8SjGc4Byg_00r8KjMKNGx9DfexaqTZHisYms5XIkV-sCVtbHSj9HGM7WqOmtEGlwVz-ZkoAu8goIdOXgy_hR3pLcPQrB4dYP9oo7aiYQw5Jac3ZA4jJa3fgA8HasBTeatqWcCqujDCFX-5YZshDN5Lkixh7Ui3QidQjp80IWZR2mmhPSrnvPnXTfiG88Oe6-agsgCN9VTRpVoA6TH_fYZny8bgvUvmnufrho3dXwOL49Soq_aY5mPqectYqk1CtPedfqEVnkZYemVq6FfhaabjZ0w29EF9_9FevciXVTdFxczs0LHn5nHUokYS3Wo0kquk5Psl-Nj77ucoff3wI8o9DNvMH6zNkmUhKrFJbI-YTq55th8kysbwRSlaAEw3GtZSt8yGyGep45wYEWNrHkW0v4zUVSCRmTlnAUF8e05APD7yncZYggnqXipYiqK3EcA0UByHGDKiRK19Nm5fVuPmh1nThEPD9rDUvm3mUa3SMp5pvuEnjiw5ewG79GwLKvHevyltG0NOKbKrAzuYD1Akjh5YN3NSzTYmV5ORyAdKIx8qxDkcfP-iDr60HBUAXkrrsiLmxIOL52Bg2FsJ6DjmotHrwN7jA80RTVA25y8nWX-yuUOt-EC3RSQx2VqoF2OnLtMoXVwHZrWOmhztBBezPYNs